
Note: No compatibility mode selected!


Circuit: ** sch_path: /home/madvlsi/documents/vlsi/mp3/schematics/bias_generator_tran.sch

binary raw file "/home/madvlsi/Documents/VLSI/mp3/schematics/simulation/bias_generator_tran.raw"
Doing analysis at TEMP = 27.000000 and TNOM = 27.000000

Note: include: has no value, DC 0 assumed
No. of Data Columns : 5  
Note: Starting dynamic gmin stepping
Trying gmin =   1.0000E-03 Note: One successful gmin step
Trying gmin =   1.0000E-04 Note: One successful gmin step
Trying gmin =   1.0000E-05 Note: One successful gmin step
Trying gmin =   1.0000E-06 Note: One successful gmin step
Trying gmin =   1.0000E-07 Note: One successful gmin step
Trying gmin =   1.0000E-08 Note: One successful gmin step
Trying gmin =   3.1623E-09 Warning: Further gmin increment
Trying gmin =   7.4989E-09 Warning: Further gmin increment
Trying gmin =   9.3057E-09 Note: One successful gmin step
Trying gmin =   8.3536E-09 Note: One successful gmin step
Trying gmin =   7.1050E-09 Warning: Further gmin increment
Trying gmin =   8.0223E-09 Warning: Further gmin increment
Trying gmin =   8.2695E-09 Note: One successful gmin step
Trying gmin =   8.1450E-09 Note: One successful gmin step
Trying gmin =   7.9616E-09 Warning: Further gmin increment
Trying gmin =   8.0987E-09 Note: One successful gmin step
Trying gmin =   8.0299E-09 Note: One successful gmin step
Trying gmin =   7.9616E-09 Note: One successful gmin step
Trying gmin =   7.8939E-09 Note: One successful gmin step
Trying gmin =   7.7935E-09 Note: One successful gmin step
Trying gmin =   7.6452E-09 Note: One successful gmin step
Trying gmin =   7.4280E-09 Note: One successful gmin step
Trying gmin =   7.1138E-09 Note: One successful gmin step
Trying gmin =   6.6672E-09 Note: One successful gmin step
Trying gmin =   6.0494E-09 Note: One successful gmin step
Trying gmin =   5.2283E-09 Note: One successful gmin step
Trying gmin =   4.2008E-09 Note: One successful gmin step
Trying gmin =   3.0254E-09 Note: One successful gmin step
Trying gmin =   1.8491E-09 Note: One successful gmin step
Trying gmin =   8.8358E-10 Note: One successful gmin step
Trying gmin =   2.9185E-10 Note: One successful gmin step
Trying gmin =   5.5403E-11 Note: One successful gmin step
Trying gmin =   5.5403E-12 Note: One successful gmin step
Trying gmin =   1.0000E-12 Note: One successful gmin step
Note: Dynamic gmin stepping completed

No. of Data Rows : 1801

Total analysis time (seconds) = 0.435

Total elapsed time (seconds) = 6.355 

Total DRAM available = 15586.723 MB.
DRAM currently available = 11368.094 MB.
Maximum ngspice program size =  350.223 MB.
Current ngspice program size =  332.355 MB.

Shared ngspice pages =   10.250 MB.
Text (code) pages =    5.449 MB.
Stack = 0 bytes.
Library pages =  330.285 MB.

